examples/test_perturbation_outputs/pert_min_cost/pglib_opf_case2869_pegase.m
%% MATPOWER Case Format : Version 2
function mpc = pglib_opf_case2869_pegase
mpc.version = '2';

%%-----  Power Flow Data  -----%%
%% system MVA base
mpc.baseMVA = 100.0;
%% bus data
%    bus_i    type    Pd    Qd    Gs    Bs    area    Vm    Va    baseKV    zone    Vmax    Vmin
mpc.bus = [
	3	1	151.0	48.8	0.0	4.69	0	1.0	0.0	220.0	5	1.1	0.9				
	4	1	171.41	23.4	0.0	2.1	0	1.0	0.0	220.0	5	1.1	0.9				
	10	1	134.0	24.7	0.0	12.44	0	1.0	0.0	220.0	5	1.1	0.9				
	15	1	59.67	26.700000000000003	0.0	12.839999999999998	0	1.0	0.0	220.0	4	1.1	0.9				
	21	1	161.2	39.3	0.0	30.709999999999997	0	1.0	0.0	220.0	5	1.1	0.9				
	22	1	0.0	0.0	0.0	0.8500000000000001	0	1.0	0.0	220.0	5	1.1	0.9				
	26	1	167.3	54.79999999999999	0.0	110.54000000000002	0	1.0	0.0	380.0	5	1.1	0.9				
	29	1	152.9	49.4	0.0	27.65	0	1.0	0.0	380.0	5	1.1	0.9				
	32	2	0.0	0.0	0.0	0.0	0	1.0	0.0	220.0	4	1.1	0.9				
	33	2	0.0	0.0	0.0	0.0	0	1.0	0.0	220.0	4	1.1	0.9				
	38	1	42.75	12.8	0.0	13.3	0	1.0	0.0	220.0	8	1.1	0.9				
	39	2	0.0	0.0	0.0	0.0	0	1.0	0.0	150.0	10	1.1	0.9				
	42	1	20.82	7.9	0.0	26.890000000000004	0	1.0	0.0	380.0	4	1.1	0.9				
	44	1	0.0	0.0	0.0	7.2700000000000005	0	1.0	0.0	220.0	5	1.1	0.9				
	51	2	0.0	0.0	0.0	0.0	0	1.0	0.0	220.0	4	1.1	0.9				
	52	1	127.60000000000001	31.8	0.0	20.51	0	1.0	0.0	150.0	8	1.1	0.9				
	53	1	48.65	16.1	0.0	7.139999999999999	0	1.0	0.0	220.0	5	1.1	0.9				
	58	1	0.0	0.0	0.0	2.31	0	1.0	0.0	380.0	5	1.1	0.9				
	59	1	119.19999999999999	20.7	0.0	3.3099999999999996	0	1.0	0.0	220.0	5	1.1	0.9				
	69	1	62.86999999999999	20.5	0.0	1.15	0	1.0	0.0	150.0	8	1.1	0.9				
	71	1	126.29999999999998	42.4	0.0	55.24	0	1.0	0.0	150.0	8	1.1	0.9				
	72	1	6.909999999999999	-4.6	0.0	5.75	0	1.0	0.0	220.0	4	1.1	0.9				
	75	1	38.74	6.1	0.0	1.17	0	1.0	0.0	220.0	4	1.1	0.9				
	76	1	22.13	10.7	0.0	14.21	0	1.0	0.0	220.0	8	1.1	0.9				
	77	1	0.0	0.0	0.0	0.73	0	1.0	0.0	220.0	4	1.1	0.9				
	89	1	0.0	0.0	0.19911099999999998	4.530599	0	1.0	0.0	380.0	2	1.1	0.9				
	90	1	363.25	115.38999999999999	0.0	3.95	0	1.0	0.0	220.0	5	1.1	0.9				
	91	1	0.0	0.0	0.0	0.02	0	1.0	0.0	150.0	8	1.1	0.9				
	96	1	-8.4	28.660000000000004	0.0	3.49	0	1.0	0.0	220.0	5	1.1	0.9				
	113	1	0.0	0.0	0.0	6.532710999999999	0	1.0	0.0	380.0	5	1.1	0.9				
	115	1	0.0	0.0	0.0	4.21	0	1.0	0.0	220.0	5	1.1	0.9				
	118	1	704.53	-35.33	0.0	13.102834	0	1.0	0.0	380.0	5	1.1	0.9				
	124	2	0.0	0.0	0.0	0.0	0	1.0	0.0	220.0	5	1.1	0.9				
	128	1	23.73	12.7	0.0	0.52	0	1.0	0.0	220.0	5	1.1	0.9				
	130	1	0.0	0.0	0.135375	47.750675	0	1.0	0.0	380.0	10	1.1	0.9				
	132	1	0.0	0.0	0.0	21.39	0	1.0	0.0	380.0	1	1.1	0.9				
	133	1	38.14	12.5	0.0	6.280000000000001	0	1.0	0.0	150.0	8	1.1	0.9				
	138	1	-75.38	7.8	0.0	29.9	0	1.0	0.0	380.0	10	1.1	0.9				
	139	1	-764.34	66.91	0.0	33.47	0	1.0	0.0	380.0	8	1.1	0.9				
	140	1	0.0	0.0	0.0	4.14	0	1.0	0.0	220.0	8	1.1	0.9				
	143	1	0.0	0.0	0.0	0.0	0	1.0	0.0	150.0	8	1.1	0.9				
	145	1	38.34	5.6	0.0	7.64	0	1.0	0.0	220.0	5	1.1	0.9				
	148	1	32.34	12.0	0.0	6.1	0	1.0	0.0	220.0	5	1.1	0.9				
	150	2	0.0	0.0	0.0	0.0	0	1.0	0.0	220.0	5	1.1	0.9				
	163	1	147.76	32.73	0.0	8.34	0	1.0	0.0	220.0	5	1.1	0.9				
	164	1	0.0	0.0	0.0	5.17	0	1.0	0.0	150.0	8	1.1	0.9				
	171	1	100.8	13.200000000000001	0.0	5.24	0	1.0	0.0	220.0	5	1.1	0.9				
	172	1	111.7	10.96	0.0	4.22	0	1.0	0.0	220.0	4	1.1	0.9				
	174	1	370.5	-17.0	0.0	9.91	0	1.0	0.0	220.0	5	1.1	0.9				
	177	1	94.9	36.2	0.0	16.46	0	1.0	0.0	220.0	10	1.1	0.9				
	179	2	0.0	0.0	0.0	0.0	0	1.0	0.0	380.0	4	1.1	0.9				
	184	1	0.0	0.0	0.0	2.42	0	1.0	0.0	220.0	5	1.1	0.9				
	188	1	36.84	13.900000000000002	0.0	3.3000000000000003	0	1.0	0.0	220.0	5	1.1	0.9				
	194	2	0.0	0.0	0.0	0.0	0	1.0	0.0	150.0	8	1.1	0.9				
	195	1	73.14	21.55	0.0	8.52	0	1.0	0.0	220.0	5	1.1	0.9				
	196	1	0.0	0.0	0.0	12.48	0	1.0	0.0	220.0	5	1.1	0.9				
	198	1	39.74	11.8	0.0	1.44	0	1.0	0.0	220.0	5	1.1	0.9				
	199	1	86.8	28.4	0.0	1.34	0	1.0	0.0	150.0	8	1.1	0.9				
	201	2	0.0	0.0	0.0	0.0	0	1.0	0.0	220.0	4	1.1	0.9				
	205	1	46.15	18.2	0.0	1.29	0	1.0	0.0	150.0	8	1.1	0.9				
	207	1	321.98	84.4	0.0	1.34	0	1.0	0.0	220.0	5	1.1	0.9				
	211	1	75.28	19.2	0.0	1.9	0	1.0	0.0	110.0	8	1.1	0.9				
	216	1	155.6	54.7	0.0	2.21	0	1.0	0.0	220.0	5	1.1	0.9				
	217	1	105.2	0.1	0.0	7.359999999999999	0	1.0	0.0	220.0	5	1.1	0.9				
	218	1	69.83	15.120000000000001	0.0	2.23	0	1.0	0.0	220.0	5	1.1	0.9				
	221	2	0.0	0.0	0.0	0.0	0	1.0	0.0	380.0	5	1.1	0.9				
	225	1	0.0	0.0	0.0	1.15	0	1.0	0.0	220.0	5	1.1	0.9				
	228	1	-23.43	57.4	0.0	0.0	0	1.0	0.0	150.0	2	1.1	0.9				
	230	1	152.07	22.52	0.0	7.870000000000001	0	1.0	0.0	220.0	4	1.1	0.9				
	231	1	-0.13	-1.0	0.0	0.0	0	1.0	0.0	110.0	8	1.1	0.9				
	236	1	45.85	7.000000000000001	0.0	1.05	0	1.0	0.0	220.0	4	1.1	0.9				
	243	1	0.0	-0.01	0.0	13.489999999999998	0	1.0	0.0	150.0	8	1.1	0.9				
	244	1	0.0	0.0	0.0	0.68	0	1.0	0.0	150.0	8	1.1	0.9				
	249	1	0.0	0.0	0.0	26.3	0	1.0	0.0	220.0	4	1.1	0.9				
	257	1	113.9	24.5	0.0	6.72	0	1.0	0.0	220.0	4	1.1	0.9				
	261	1	0.0	0.0	0.0	1.29	0	1.0	0.0	380.0	10	1.1	0.9				
	264	1	38.74	9.0	0.0	0.57	0	1.0	0.0	220.0	4	1.1	0.9				
	266	1	0.0	0.0	0.0	140.96	0	1.0	0.0	380.0	4	1.1	0.9				
	267	1	103.8	2.7	0.0	3.3300000000000005	0	1.0	0.0	220.0	4	1.1	0.9				
	268	1	-0.13	-1.0	0.0	0.0	0	1.0	0.0	220.0	8	1.1	0.9				
	271	1	96.7	26.8	0.0	0.0	0	1.0	0.0	150.0	2	1.1	0.9				
	275	1	102.1	25.3	0.0	1.11	0	1.0	0.0	150.0	8	1.1	0.9				
	280	1	119.6	29.600000000000005	0.0	5.34	0	1.0	0.0	220.0	5	1.1	0.9				
	281	1	0.0	0.0	0.0	18.07	0	1.0	0.0	380.0	8	1.1	0.9				
	283	1	27.33	11.9	0.0	1.17	0	1.0	0.0	220.0	5	1.1	0.9				
	284	1	191.2	-3.4000000000000004	0.0	19.21	0	1.0	0.0	220.0	4	1.1	0.9				
	292	1	13.819999999999999	1.4	0.0	0.7	0	1.0	0.0	220.0	5	1.1	0.9				
	297	1	23.73	9.4	0.0	1.45	0	1.0	0.0	150.0	8	1.1	0.9				
	299	2	0.0	0.0	0.0	0.0	0	1.0	0.0	380.0	4	1.1	0.9				
	304	1	2.2	0.5	0.0	0.21	0	1.0	0.0	150.0	10	1.1	0.9				
	305	1	103.0	12.0	0.0	0.63	0	1.0	0.0	220.0	5	1.1	0.9				
	306	1	0.0	0.0	0.0	4.76	0	1.0	0.0	220.0	5	1.1	0.9				
	311	1	42.05	17.2	0.0	1.31	0	1.0	0.0	150.0	8	1.1	0.9				
	312	1	-0.16	-2.91	0.0	0.43	0	1.0	0.0	110.0	8	1.1	0.9				
	314	1	163.1	46.3	0.0	10.6	0	1.0	0.0	220.0	5	1.1	0.9				
	315	1	0.0	0.0	0.0	2.13	0	1.0	0.0	220.0	10	1.1	0.9				
	317	1	0.0	0.0	0.045946	-1.8220300000000003	0	1.0	0.0	380.0	2	1.1	0.9				
	322	1	303.8	85.4	0.0	3.63	0	1.0	0.0	220.0	10	1.1	0.9				
	326	1	0.0	0.0	0.0	0.0	0	1.0	0.0	220.0	8	1.1	0.9				
	333	1	524.5	43.0	0.0	6.849999999999999	0	1.0	0.0	220.0	5	1.1	0.9				
	338	2	0.0	0.0	0.0	0.0	0	1.0	0.0	220.0	5	1.1	0.9				
	344	1	372.8	147.5	0.0	27.73	0	1.0	0.0	150.0	8	1.1	0.9				
	346	1	197.5	48.3	0.0	0.71	0	1.0	0.0	220.0	5	1.1	0.9				
	349	1	0.0	0.0	0.0	15.15	0	1.0	0.0	150.0	8	1.1	0.9				
	350	1	110.4	26.200000000000003	0.0	5.62	0	1.0	0.0	220.0	5	1.1	0.9				
	351	1	-0.15	-1.9299999999999997	0.0	0.0	0	1.0	0.0	220.0	8	1.1	0.9				
	352	2	0.0	0.0	0.0	0.0	0	1.0	0.0	380.0	5	1.1	0.9				
	360	1	35.54	11.5	0.0	3.65	0	1.0	0.0	110.0	8	1.1	0.9				
	367	1	65.17	-51.5	0.0	4.85	0	1.0	0.0	220.0	5	1.1	0.9				
	369	1	0.0	0.0	0.0	3.7800000000000002	0	1.0	0.0	220.0	8	1.1	0.9				
	370	1	56.76	23.2	0.0	0.49	0	1.0	0.0	150.0	8	1.1	0.9				
	377	1	-0.18	-1.0	0.0	0.0	0	1.0	0.0	150.0	8	1.1	0.9				
	380	1	-95.71	-2.8	0.0	7.249999999999999	0	1.0	0.0	220.0	10	1.1	0.9				
	385	1	0.0	0.0	0.0	105.84	0	1.0	0.0	380.0	4	1.1	0.9				
	387	1	-0.19	-4.38	0.0	0.0	0	1.0	0.0	150.0	8	1.1	0.9				
	389	2	0.0	0.0	0.0	0.0	0	1.0	0.0	150.0	10	1.1	0.9				
	392	1	134.1	34.2	0.0	0.75	0	1.0	0.0	150.0	8	1.1	0.9				
	395	1	0.0	0.0	0.0	7.85	0	1.0	0.0	380.0	8	1.1	0.9				
	401	1	56.49999999999999	36.29	0.0	3.08	0	1.0	0.0	220.0	5	1.1	0.9				
	408	1	129.1	7.400000000000001	0.0	0.04	0	1.0	0.0	220.0	5	1.1	0.9				
	410	1	170.89	50.38	0.0	6.4399999999999995	0	1.0	0.0	220.0	5	1.1	0.9				
	413	2	0.0	0.0	0.0	0.0	0	1.0	0.0	220.0	5	1.1	0.9				
	415	1	4.71	0.7	0.0	11.39	0	1.0	0.0	220.0	4	1.1	0.9				
	416	1	70.68	13.5	0.0	6.959999999999999	0	1.0	0.0	220.0	5	1.1	0.9				
	420	1	0.0	0.0	0.0	0.0	0	1.0	0.0	380.0	8	1.1	0.9				
	425	1	0.0	0.0	0.0	2.72	0	1.0	0.0	380.0	1	1.1	0.9				
	426	1	123.1	6.5	0.0	3.25	0	1.0	0.0	220.0	5	1.1	0.9				
	427	1	0.0	0.0	0.0	1.24	0	1.0	0.0	380.0	1	1.1	0.9				
	429	1	26.93	-22.4	0.0	4.95	0	1.0	0.0	220.0	4	1.1	0.9				
	432	1	0.0	0.0	0.0	68.517663	0	1.0	0.0	380.0	5	1.1	0.9				
	440	2	0.0	0.0	0.0	0.0	0	1.0	0.0	220.0	4	1.1	0.9				
	441	1	0.0	0.0	0.199768	27.888515999999996	0	1.0	0.0	380.0	10	1.1	0.9				
	442	2	0.0	0.0	0.0	0.0	0	1.0	0.0	220.0	4	1.1	0.9				
	444	1	0.0	0.0	0.0	2.45	0	1.0	0.0	220.0	5	1.1	0.9				
	445	1	36.74	10.3	0.0	8.1	0	1.0	0.0	220.0	4	1.1	0.9				
	449	1	0.0	0.0	0.0	29.42	0	1.0	0.0	380.0	5	1.1	0.9				
	453	2	0.0	0.0	0.0	0.0	0	1.0	0.0	380.0	5	1.1	0.9				
	455	1	274.32	5.66	0.0	13.239999999999998	0	1.0	0.0	220.0	5	1.1	0.9				
	472	1	336.2	131.6	0.0	64.01	0	1.0	0.0	150.0	8	1.1	0.9				
	473	1	-22.95	-3.72	0.0	14.34	0	1.0	0.0	220.0	4	1.1	0.9				
	477	1	0.0	0.0	0.0	70.37	0	1.0	0.0	380.0	4	1.1	0.9				
	481	1	0.0	0.0	0.0	17.44	0	1.0	0.0	220.0	4	1.1	0.9				
	483	1	57.26	15.6	0.0	3.4300000000000006	0	1.0	0.0	220.0	4	1.1	0.9				
	486	1	7.01	2.0	0.0	0.44	0	1.0	0.0	150.0	8	1.1	0.9				
	489	2	0.0	0.0	0.0	0.0	0	1.0	0.0	220.0	4	1.1	0.9				
	490	1	20.52	4.0	0.0	2.77	0	1.0	0.0	220.0	5	1.1	0.9				
	496	1	0.0	0.0	0.0	10.04	0	1.0	0.0	150.0	8	1.1	0.9				
	500	1	144.4	35.5	0.0	7.66	0	1.0	0.0	220.0	5	1.1	0.9				
	502	1	0.0	0.0	0.0	1.96	0	1.0	0.0	220.0	5	1.1	0.9				
	506	1	0.0	0.0	0.0	0.4	0	1.0	0.0	380.0	5	1.1	0.9				
	509	1	77.29	7.000000000000001	0.0	17.6	0	1.0	0.0	220.0	4	1.1	0.9				
	513	1	57.46	17.1	0.0	1.6099999999999999	0	1.0	0.0	220.0	5	1.1	0.9				
	516	2	0.0	0.0	0.0	0.0	0	1.0	0.0	220.0	5	1.1	0.9				
	519	1	207.20000000000002	9.4	0.0	8.77	0	1.0	0.0	220.0	4	1.1	0.9				
	520	1	118.5	20.4	0.0	2.57	0	1.0	0.0	220.0	5	1.1	0.9				
	523	1	189.9	74.7	0.0	26.200000000000003	0	1.0	0.0	150.0	8	1.1	0.9				
	527	1	277.7	45.4	0.0	0.7	0	1.0	0.0	220.0	4	1.1	0.9				
	536	1	87.8	-1.4	0.079073	36.047349	0	1.0	0.0	380.0	10	1.1	0.9				
	539	1	57.96	18.9	0.0	14.91	0	1.0	0.0	150.0	8	1.1	0.9				
	544	1	79.69	39.6	0.0	18.83	0	1.0	0.0	380.0	10	1.1	0.9				
	548	1	30.930000000000003	8.9	0.0	0.45000000000000007	0	1.0	0.0	110.0	8	1.1	0.9				
	549	1	0.0	0.0	0.0	5.15	0	1.0	0.0	220.0	5	1.1	0.9				
	550	1	0.0	0.0	0.0	10.0	0	1.0	0.0	220.0	4	1.1	0.9				
	552	1	180.8	90.8	0.0	2.42	0	1.0	0.0	150.0	10	1.1	0.9				
	554	1	0.0	0.0	0.0	1.97	0	1.0	0.0	220.0	5	1.1	0.9				
	556	1	16.52	9.0	0.0	1.17	0	1.0	0.0	220.0	5	1.1	0.9				
	558	1	-0.18	-3.5699999999999994	0.0	0.0	0	1.0	0.0	150.0	8	1.1	0.9				
	559	1	42.25	16.6	0.0	0.0	0	1.0	0.0	150.0	8	1.1	0.9				
	561	1	0.0	0.0	0.0	0.32	0	1.0	0.0	220.0	5	1.1	0.9				
	564	2	0.0	0.0	0.0	0.0	0	1.0	0.0	220.0	5	1.1	0.9				
	575	1	0.0	0.0	0.0	0.67	0	1.0	0.0	220.0	5	1.1	0.9				
	577	1	-0.13	-1.0	0.0	0.0	0	1.0	0.0	220.0	8	1.1	0.9				
	579	1	17.32	6.6000000000000005	0.0	16.52	0	1.0	0.0	380.0	4	1.1	0.9				
	583	2	0.0	0.0	0.0	0.0	0	1.0	0.0	220.0	5	1.1	0.9				
	585	1	21.12	8.3	0.0	4.26	0	1.0	0.0	150.0	8	1.1	0.9				
	593	1	0.0	0.0	0.0	29.2	0	1.0	0.0	380.0	8	1.1	0.9				
	594	1	67.57	17.0	0.0	5.75	0	1.0	0.0	220.0	5	1.1	0.9				
	595	1	47.55	5.3	0.0	7.59	0	1.0	0.0	220.0	4	1.1	0.9				
	597	1	33.34	15.7	0.0	64.15	0	1.0	0.0	380.0	4	1.1	0.9				
	601	1	140.6	42.6	0.0	5.71	0	1.0	0.0	220.0	5	1.1	0.9				
	602	1	110.79999999999998	-8.8	0.0	3.15	0	1.0	0.0	220.0	4	1.1	0.9				
	604	1	33.24	4.4	0.0	24.54	0	1.0	0.0	380.0	5	1.1	0.9				
	608	1	150.9	10.4	0.0	4.77	0	1.0	0.0	220.0	5	1.1	0.9				
	609	1	0.0	0.0	0.0	5.67	0	1.0	0.0	220.0	5	1.1	0.9				
	610	1	0.0	0.0	0.0	0.91	0	1.0	0.0	150.0	10	1.1	0.9				
	615	2	0.0	0.0	0.0	0.0	0	1.0	0.0	220.0	5	1.1	0.9				
	616	2	0.0	0.0	0.0	0.0	0	1.0	0.0	220.0	5	1.1	0.9				
	618	2	0.0	0.0	0.0	0.0	0	1.0	0.0	380.0	4	1.1	0.9				
	619	1	72.88	14.400000000000002	0.0	2.96	0	1.0	0.0	220.0	5	1.1	0.9				
	621	1	21.42	8.1	0.0	7.380000000000001	0	1.0	0.0	220.0	4	1.1	0.9				
	628	2	0.0	0.0	0.0	0.0	0	1.0	0.0	220.0	10	1.1	0.9				
	639	2	0.0	0.0	0.0	0.0	0	1.0	0.0	220.0	5	1.1	0.9				
	641	1	45.32	18.5	0.0	0.74	0	1.0	0.0	220.0	5	1.1	0.9				
	642	2	0.0	0.0	0.0	0.0	0	1.0	0.0	380.0	4	1.1	0.9				
	643	1	15.52	6.3	0.0	0.6	0	1.0	0.0	150.0	8	1.1	0.9				
	649	1	40.94	19.2	0.0	5.2	0	1.0	0.0	220.0	4	1.1	0.9				
	650	1	17.22	4.4	0.0	1.71	0	1.0	0.0	110.0	8	1.1	0.9				
	656	1	-0.15	-1.9299999999999997	0.0	0.0	0	1.0	0.0	220.0	8	1.1	0.9				
	658	1	258.4	66.7	0.0	5.87	0	1.0	0.0	220.0	5	1.1	0.9				
	659	1	0.0	0.0	0.174507	73.977052	0	1.0	0.0	380.0	2	1.1	0.9				
...
];

%% generator data
%    bus    Pg    Qg    Qmax    Qmin    Vg    mBase    status    Pmax    Pmin    Pc1    Pc2    Qc1min    Qc1max    Qc2min    Qc2max    ramp_agc    ramp_10    ramp_30    ramp_q    apf
mpc.gen = [
	32	8.1	0.675	5.91	-4.56	1.0	100.0	1	16.2	0.0															
	33	2.69	0.595	2.27	-1.08	1.0	100.0	1	5.38	0.0															
	39	20.0	5.31	17.76	-7.139999999999999	1.0	100.0	1	40.0	0.0															
	51	-46.335	0.645	5.48	-4.19	1.0	100.0	1	100.0	-192.67															
	124	666.665	133.865	440.32	-172.59	1.0	100.0	1	1000.0	333.33															
	150	80.0	27.275	77.09	-22.54	1.0	100.0	1	160.0	0.0															
	179	-69.465	0.45999999999999996	52.64	-51.72	1.0	100.0	1	100.0	-238.93															
	194	200.0	38.33	130.19	-53.53	1.0	100.0	1	300.0	100.0															
	201	2.685	0.6	2.27	-1.07	1.0	100.0	1	5.37	0.0															
	221	-53.59	59.31000000000001	183.92	-65.3	1.0	100.0	1	100.0	-207.18															
	299	1066.665	231.27	721.25	-258.71	1.0	100.0	1	1600.0	533.33															
	338	60.0	18.19	55.54	-19.16	1.0	100.0	1	120.0	0.0															
	352	1333.335	314.335	926.35	-297.68	1.0	100.0	1	2000.0	666.67															
	389	60.0	19.445	56.72999999999999	-17.84	1.0	100.0	1	120.0	0.0															
	413	140.0	37.14	124.12	-49.84	1.0	100.0	1	280.0	0.0															
	440	60.0	18.36	55.730000000000004	-19.01	1.0	100.0	1	120.0	0.0															
	442	23.1	0.51	1.95	-0.93	1.0	100.0	1	100.0	-53.79999999999999															
	453	270.0	91.415	257.23	-74.4	1.0	100.0	1	540.0	0.0															
	489	-21.6	0.73	6.280000000000001	-4.82	1.0	100.0	1	100.0	-143.2															
	516	400.0	77.56	261.79	-106.67	1.0	100.0	1	600.0	200.0															
	564	15.555	-0.44	18.47	-19.35	1.0	100.0	1	100.0	-68.89															
	583	-130.0	5.425	17.88	-7.03	1.0	100.0	1	100.0	-360.0															
	615	20.0	4.65	17.09	-7.79	1.0	100.0	1	40.0	0.0															
	616	320.0	68.37	217.90000000000003	-81.16	1.0	100.0	1	480.0	160.0															
	618	533.335	106.035	351.18	-139.11	1.0	100.0	1	800.0	266.67															
	628	90.0	23.55	78.79	-31.69	1.0	100.0	1	180.0	0.0															
	639	19.2	48.31	135.52	-38.9	1.0	100.0	1	100.0	-61.6															
	642	138.045	-1.45	90.13	-93.03	1.0	100.0	1	276.09	0.0															
	682	40.0	13.855	38.77	-11.06	1.0	100.0	1	80.0	0.0															
	686	35.57	0.245	34.75	-34.26	1.0	100.0	1	100.0	-28.859999999999996															
	698	200.0	38.015	129.94	-53.90999999999999	1.0	100.0	1	300.0	100.0															
	709	32.65	0.7	22.23	-20.83	1.0	100.0	1	65.3	0.0															
	739	333.335	59.760000000000005	212.97000000000003	-93.45	1.0	100.0	1	500.0	166.67															
	749	120.0	30.925000000000004	105.69	-43.84	1.0	100.0	1	240.0	0.0															
	751	150.0	44.85	136.94	-47.24	1.0	100.0	1	300.0	0.0															
	757	60.0	13.944999999999999	51.300000000000004	-23.41	1.0	100.0	1	120.0	0.0															
	776	-24.265	5.715	18.16	-6.7299999999999995	1.0	100.0	1	100.0	-148.53															
	778	16.79	1.505	12.37	-9.36	1.0	100.0	1	33.58	0.0															
	780	40.0	12.555	37.43	-12.32	1.0	100.0	1	80.0	0.0															
	795	40.0	11.855	36.75	-13.04	1.0	100.0	1	80.0	0.0															
	803	-9.465	24.245	74.03	-25.540000000000003	1.0	100.0	1	100.0	-118.93															
	807	1333.335	251.75	864.47	-360.97	1.0	100.0	1	2000.0	666.67															
	823	1333.335	314.185	926.68	-298.31	1.0	100.0	1	2000.0	666.67															
	849	8.785	0.77	6.45	-4.91	1.0	100.0	1	17.57	0.0															
	851	100.0	34.415	96.64	-27.810000000000002	1.0	100.0	1	200.0	0.0															
	858	666.665	134.26	440.66999999999996	-172.15	1.0	100.0	1	1000.0	333.33															
	891	1600.0	361.75	1097.41	-373.91	1.0	100.0	1	2400.0	800.0															
	913	1133.335	251.085	772.11	-269.94	1.0	100.0	1	1700.0	566.67															
	916	150.0	42.345	134.45	-49.76	1.0	100.0	1	300.0	0.0															
	930	600.0	130.955	406.66	-144.75	1.0	100.0	1	900.0	300.0															
	972	1333.335	321.605	934.73	-291.52	1.0	100.0	1	2000.0	666.67															
	976	53.915	0.335	36.02	-35.35	1.0	100.0	1	107.83	0.0															
	1001	60.0	17.605	55.02	-19.81	1.0	100.0	1	120.0	0.0															
	1002	100.0	27.200000000000003	89.55	-35.15	1.0	100.0	1	200.0	0.0															
	1021	-69.535	21.055	58.34	-16.23	1.0	100.0	1	100.0	-239.07															
	1030	250.0	21.885	71.66	-27.889999999999997	1.0	100.0	1	400.0	100.0															
	1036	200.0	45.47	137.39	-46.45	1.0	100.0	1	300.0	100.0															
	1043	600.0	112.23999999999998	387.88	-163.4	1.0	100.0	1	900.0	300.0															
	1083	60.0	17.515	54.90999999999999	-19.88	1.0	100.0	1	120.0	0.0															
	1093	800.0	182.77	550.69	-185.15	1.0	100.0	1	1200.0	400.0															
	1100	40.0	11.895	36.8	-13.01	1.0	100.0	1	80.0	0.0															
	1102	-32.77	13.23	38.05	-11.59	1.0	100.0	1	100.0	-165.54															
	1121	180.0	47.695	158.2	-62.81	1.0	100.0	1	360.0	0.0															
	1173	-33.135	0.485	1.8500000000000003	-0.88	1.0	100.0	1	100.0	-166.27															
	1174	20.0	6.165	18.61	-6.280000000000001	1.0	100.0	1	40.0	0.0															
	1175	450.0	34.615	108.35	-39.12	1.0	100.0	1	700.0	200.0															
	1237	1333.335	293.585	906.61	-319.44	1.0	100.0	1	2000.0	666.67															
	1241	32.815	0.655	22.29	-20.98	1.0	100.0	1	65.63	0.0															
	1251	800.0	182.77	550.69	-185.15	1.0	100.0	1	1200.0	400.0															
	1271	-17.0	0.215	32.54	-32.11	1.0	100.0	1	100.0	-134.0															
	1295	-32.735	12.02	36.92	-12.879999999999999	1.0	100.0	1	100.0	-165.47															
	1341	60.0	19.705	57.03	-17.62	1.0	100.0	1	120.0	0.0															
	1354	-114.33499999999998	13.175	38.08	-11.73	1.0	100.0	1	100.0	-328.67															
	1391	20.0	6.285	18.74	-6.17	1.0	100.0	1	40.0	0.0															
	1399	-66.4	0.72	11.64	-10.2	1.0	100.0	1	100.0	-232.80000000000004															
	1409	533.335	93.45	338.66	-151.76	1.0	100.0	1	800.0	266.67															
	1422	-17.335	5.65	18.09	-6.79	1.0	100.0	1	100.0	-134.67															
	1436	40.0	12.814999999999998	37.72	-12.09	1.0	100.0	1	80.0	0.0															
	1458	1333.335	282.225	895.2300000000001	-330.78	1.0	100.0	1	2000.0	666.67															
	1475	600.0	118.725	394.45	-157.0	1.0	100.0	1	900.0	300.0															
	1478	40.0	11.48	36.4	-13.44	1.0	100.0	1	80.0	0.0															
	1498	2.655	0.595	2.25	-1.06	1.0	100.0	1	5.31	0.0															
	1570	133.335	31.835	93.16	-29.49	1.0	100.0	1	200.0	66.67															
	1604	40.0	12.744999999999997	37.66	-12.17	1.0	100.0	1	80.0	0.0															
	1618	-41.065	0.6	21.27	-20.07	1.0	100.0	1	100.0	-182.13															
	1642	40.0	12.814999999999998	37.74	-12.11	1.0	100.0	1	80.0	0.0															
	1680	1333.335	316.395	928.89	-296.1	1.0	100.0	1	2000.0	666.67															
	1685	60.0	20.095	57.41	-17.22	1.0	100.0	1	120.0	0.0															
	1697	-76.0	0.35	31.94	-31.240000000000002	1.0	100.0	1	100.0	-252.0															
	1708	666.665	133.035	439.37	-173.3	1.0	100.0	1	1000.0	333.33															
	1721	20.0	6.065	18.52	-6.39	1.0	100.0	1	40.0	0.0															
	1747	600.0	111.97	387.67	-163.73	1.0	100.0	1	900.0	300.0															
	1754	20.53	4.535	16.99	-7.919999999999999	1.0	100.0	1	41.06	0.0															
	1788	400.0	88.665	272.25	-94.92	1.0	100.0	1	600.0	200.0															
	1793	-10.2	9.72	34.64	-15.2	1.0	100.0	1	100.0	-120.39999999999999															
	1794	1333.335	314.335	926.35	-297.68	1.0	100.0	1	2000.0	666.67															
	1808	49.6	36.535	111.23	-38.16	1.0	100.0	1	100.0	-0.8															
	1850	16.485	0.715	11.52	-10.09	1.0	100.0	1	32.97	0.0															
	1851	15.960000000000003	1.435	11.76	-8.89	1.0	100.0	1	31.920000000000005	0.0															
	1852	-111.20000000000002	20.82	58.160000000000004	-16.52	1.0	100.0	1	100.0	-322.4															
	1888	612.78	120.095	396.02	-155.83	1.0	100.0	1	912.7800000000001	312.78															
	1890	1066.665	196.055	686.73	-294.62	1.0	100.0	1	1600.0	533.33															
	1898	150.0	40.93	133.11	-51.24999999999999	1.0	100.0	1	300.0	0.0															
	1909	29.215000000000003	13.785	38.67	-11.1	1.0	100.0	1	100.0	-41.57															
	1914	255.755	4.705	160.36	-150.95	1.0	100.0	1	472.16	39.35															
	1947	38.65	0.54	2.05	-0.97	1.0	100.0	1	100.0	-22.7															
	1959	20.0	5.695	18.14	-6.75	1.0	100.0	1	40.0	0.0															
	1999	90.0	25.22	80.51	-30.070000000000004	1.0	100.0	1	180.0	0.0															
	2030	400.0	73.075	257.0	-110.85000000000001	1.0	100.0	1	600.0	200.0															
	2035	666.665	135.29	441.84999999999997	-171.27	1.0	100.0	1	1000.0	333.33															
	2050	1333.335	349.275	962.2	-263.65	1.0	100.0	1	2000.0	666.67															
	2085	100.0	26.1	88.39	-36.19	1.0	100.0	1	200.0	0.0															
	2091	20.0	5.42	17.88	-7.04	1.0	100.0	1	40.0	0.0															
	2096	800.0	155.185	522.74	-212.37	1.0	100.0	1	1200.0	400.0															
	2107	1000.0	202.14	661.9	-257.62	1.0	100.0	1	1500.0	500.0															
	2150	400.0	82.335	266.17	-101.49999999999999	1.0	100.0	1	600.0	200.0															
	2177	-30.865	21.045	58.35	-16.26	1.0	100.0	1	100.0	-161.73															
	2193	8.06	2.455	7.470000000000001	-2.56	1.0	100.0	1	16.12	0.0															
	2197	14.475	2.385	19.51	-14.74	1.0	100.0	1	100.0	-71.05															
	2206	200.0	45.355	137.29	-46.58	1.0	100.0	1	300.0	100.0															
	2225	-5.665	0.615	2.27	-1.04	1.0	100.0	1	100.0	-111.33															
	2236	24.37	0.58	2.23	-1.07	1.0	100.0	1	100.0	-51.25999999999999															
	2267	333.335	74.665	228.16	-78.83	1.0	100.0	1	500.0	166.67															
	2276	59.650000000000006	2.585	41.67	-36.5	1.0	100.0	1	119.30000000000001	0.0															
	2291	100.0	33.38	95.69	-28.93	1.0	100.0	1	200.0	0.0															
	2335	400.0	89.695	273.49	-94.1	1.0	100.0	1	600.0	200.0															
	2359	40.0	9.425	34.35	-15.5	1.0	100.0	1	80.0	0.0															
	2412	204.545	-0.8750000000000001	134.54	-136.29	1.0	100.0	1	409.09	0.0															
	2421	-163.6	12.47	37.39	-12.45	1.0	100.0	1	100.0	-427.20000000000005															
	2425	-17.0	16.905	54.29999999999999	-20.49	1.0	100.0	1	100.0	-134.0															
	2426	21.2	3.16	105.34000000000002	-99.02	1.0	100.0	1	100.0	-57.60000000000001															
	2446	1333.335	308.445	921.6200000000001	-304.73	1.0	100.0	1	2000.0	666.67															
	2460	40.0	13.135	38.01	-11.74	1.0	100.0	1	80.0	0.0															
	2468	40.0	13.105	38.02	-11.81	1.0	100.0	1	80.0	0.0															
	2481	40.0	14.205000000000002	39.12	-10.71	1.0	100.0	1	80.0	0.0															
	2489	180.0	50.305	162.4	-61.79	1.0	100.0	1	360.0	0.0															
	2517	117.26	0.53	78.13	-77.07	1.0	100.0	1	234.52	0.0															
	2550	60.0	20.87	58.22999999999999	-16.49	1.0	100.0	1	120.0	0.0															
	2572	400.0	92.28	276.19	-91.63	1.0	100.0	1	600.0	200.0															
	2600	80.0	26.245	76.08	-23.59	1.0	100.0	1	160.0	0.0															
	2627	1333.335	308.365	921.52	-304.79	1.0	100.0	1	2000.0	666.67															
	2642	1333.335	235.545	848.76	-377.67	1.0	100.0	1	2000.0	666.67															
	2653	60.0	14.57	51.94	-22.8	1.0	100.0	1	120.0	0.0															
	2658	450.0	32.645	124.68	-59.39	1.0	100.0	1	700.0	200.0															
	2660	90.0	24.46	79.69	-30.769999999999996	1.0	100.0	1	180.0	0.0															
	2686	1.4	-0.445	69.01	-69.9	1.0	100.0	1	100.0	-97.2															
	2719	98.36	6.025	70.15	-58.099999999999994	1.0	100.0	1	196.72	0.0															
	2764	600.0	141.1	416.7	-134.5	1.0	100.0	1	900.0	300.0															
	2786	1333.335	321.67	934.8099999999998	-291.47	1.0	100.0	1	2000.0	666.67															
	2797	-13.4	26.0	88.33	-36.33	1.0	100.0	1	100.0	-126.8															
	2799	80.0	28.125	77.91	-21.66	1.0	100.0	1	160.0	0.0															
	2800	800.0	157.75	525.34	-209.83999999999997	1.0	100.0	1	1200.0	400.0															
	2816	1333.335	314.26	926.2599999999999	-297.74	1.0	100.0	1	2000.0	666.67															
	2817	40.0	9.93	34.8	-14.940000000000001	1.0	100.0	1	80.0	0.0															
	2841	60.0	18.61	55.98	-18.76	1.0	100.0	1	120.0	0.0															
	2842	20.0	5.725	18.19	-6.74	1.0	100.0	1	40.0	0.0															
	2853	80.0	22.275	72.02	-27.47	1.0	100.0	1	160.0	0.0															
	2872	4.525	0.385	3.3099999999999996	-2.54	1.0	100.0	1	9.05	0.0															
	2878	107.43	2.12	72.95	-68.71	1.0	100.0	1	214.86	0.0															
	2886	60.0	20.335	57.69	-17.02	1.0	100.0	1	120.0	0.0															
	2896	-98.935	0.395	1.52	-0.73	1.0	100.0	1	100.0	-297.87															
	2902	20.0	6.735	19.19	-5.72	1.0	100.0	1	40.0	0.0															
	2930	40.0	12.35	37.24	-12.54	1.0	100.0	1	80.0	0.0															
	2934	3.415	0.3	2.51	-1.91	1.0	100.0	1	6.83	0.0															
	2946	-98.065	0.48	1.83	-0.8699999999999999	1.0	100.0	1	100.0	-296.13															
	2985	246.675	25.895000000000003	184.46	-132.67	1.0	100.0	1	493.35	0.0															
	3018	100.0	27.394999999999996	89.61	-34.82	1.0	100.0	1	200.0	0.0															
	3028	666.665	135.29	441.84999999999997	-171.27	1.0	100.0	1	1000.0	333.33															
	3054	266.665	45.305	167.72	-77.11	1.0	100.0	1	400.0	133.33															
	3113	36.465	0.7	22.39	-20.99	1.0	100.0	1	100.0	-27.07															
	3114	20.0	4.86	17.33	-7.61	1.0	100.0	1	40.0	0.0															
	3133	120.0	39.205	113.97	-35.56	1.0	100.0	1	240.0	0.0															
	3134	-40.865	20.46	70.25	-29.330000000000002	1.0	100.0	1	100.0	-181.73															
	3150	29.105000000000004	0.78	6.660000000000001	-5.1	1.0	100.0	1	100.0	-41.79															
	3157	9.205	0.8250000000000001	6.78	-5.13	1.0	100.0	1	18.41	0.0															
	3163	103.43	-0.55	67.92	-69.02	1.0	100.0	1	206.86	0.0															
	3183	60.0	16.36	53.7	-20.98	1.0	100.0	1	120.0	0.0															
	3205	270.0	77.575	243.61	-88.46	1.0	100.0	1	540.0	0.0															
	3218	-21.6	11.895	36.79	-13.0	1.0	100.0	1	100.0	-143.2															
	3233	210.0	49.68	178.47	-79.11	1.0	100.0	1	420.0	0.0															
	3240	21.8	5.43	62.23	-51.36999999999999	1.0	100.0	1	100.0	-56.39999999999999															
	3291	333.335	75.99	229.0	-77.02	1.0	100.0	1	500.0	166.67															
	3306	666.665	132.885	439.19999999999993	-173.43	1.0	100.0	1	1000.0	333.33															
	3324	32.35	13.245	38.13	-11.64	1.0	100.0	1	100.0	-35.3															
	3334	19.665	9.535	34.41	-15.340000000000002	1.0	100.0	1	100.0	-60.67															
	3335	0.0	0.0	99999.0	-99999.0	1.0	100.0	1	630.0	-630.0															
	3346	40.0	12.17	37.1	-12.76	1.0	100.0	1	80.0	0.0															
	3353	40.0	13.295000000000002	38.2	-11.61	1.0	100.0	1	80.0	0.0															
	3364	67.635	2.875	47.19	-41.44	1.0	100.0	1	135.27	0.0															
	3390	60.0	17.2	54.59	-20.19	1.0	100.0	1	120.0	0.0															
	3416	90.0	21.155	76.43	-34.12	1.0	100.0	1	180.0	0.0															
	3422	60.0	20.845	58.19	-16.5	1.0	100.0	1	120.0	0.0															
	3436	800.0	183.04	550.97	-184.89	1.0	100.0	1	1200.0	400.0															
	3492	-197.2	16.335	53.75	-21.08	1.0	100.0	1	100.0	-494.4															
	3513	600.0	112.23999999999998	387.88	-163.4	1.0	100.0	1	900.0	300.0															
	3565	40.0	13.930000000000001	38.83	-10.97	1.0	100.0	1	80.0	0.0															
	3580	300.0	77.17	261.7	-107.35999999999999	1.0	100.0	1	600.0	0.0															
	3582	-164.535	0.395	52.83	-52.04	1.0	100.0	1	100.0	-429.07															
	3584	-8.935	2.34	19.8	-15.120000000000001	1.0	100.0	1	100.0	-117.87															
	3585	40.0	12.555	37.43	-12.32	1.0	100.0	1	80.0	0.0															
...
];

%% branch data
%    f_bus    t_bus    r    x    b    rateA    rateB    rateC    ratio    angle    status    angmin    angmax
mpc.branch = [
	5147	3097	0.0006	0.00616	0.0	823.0	5104.0	5104.0	0	0	1	-29.999999999999996	29.999999999999996								
	5147	8763	0.0005	0.0074	0.0	921.0000000000001	4259.0	4259.0	0	0	1	-29.999999999999996	29.999999999999996								
	427	5425	7.0e-5	0.00057	0.0	1711.0	55004.0	55004.0	0	0	1	-29.999999999999996	29.999999999999996								
	427	4704	6.0e-5	0.00056	0.0	1514.0	56085.0	56085.0	0	0	1	-29.999999999999996	29.999999999999996								
	5960	7431	0.003349	0.01656	0.0	1870.0	1870.0	1870.0	0	0	1	-29.999999999999996	29.999999999999996								
	5960	3186	0.003409	0.016211	0.0	1907.0	1907.0	1907.0	0	0	1	-29.999999999999996	29.999999999999996								
	4481	7431	0.003479	0.01586	0.0	1946.0	1946.0	1946.0	0	0	1	-29.999999999999996	29.999999999999996								
	4481	3186	0.003099	0.017969	0.0	1732.9999999999998	1732.9999999999998	1732.9999999999998	0	0	1	-29.999999999999996	29.999999999999996								
	5205	7833	0.00236	0.01418	0.0	553.0	2198.0	2198.0	0	0	1	-29.999999999999996	29.999999999999996								
	5205	7770	0.002169	0.015909	0.0	514.0	1968.0	1968.0	0	0	1	-29.999999999999996	29.999999999999996								
	5773	6542	0.00014	0.0012	0.0	26145.999999999996	26145.999999999996	26145.999999999996	0	0	1	-29.999999999999996	29.999999999999996								
	5773	7840	0.000211	0.001539	0.0	20335.0	20335.0	20335.0	0	0	1	-29.999999999999996	29.999999999999996								
	5214	6542	0.000401	0.004901	0.0	6423.999999999999	6423.999999999999	6423.999999999999	0	0	1	-29.999999999999996	29.999999999999996								
	5214	7840	0.000219	0.00151	0.0	533.0	20703.0	20703.0	0	0	1	-29.999999999999996	29.999999999999996								
	2971	6069	0.00052	0.00407	0.0	1481.0	7698.999999999999	7698.999999999999	0	0	1	-29.999999999999996	29.999999999999996								
	2971	3445	0.00034	0.00502	0.0	1843.0	6278.0	6278.0	0	0	1	-29.999999999999996	29.999999999999996								
	7561	6069	0.00065	0.00698	0.0	1711.0	4506.0	4506.0	0	0	1	-29.999999999999996	29.999999999999996								
	7561	8825	0.00059	0.00806	0.0	1678.0	3909.0000000000005	3909.0000000000005	0	0	1	-29.999999999999996	29.999999999999996								
	7556	7058	0.00374	0.02095	0.0	800.0	1485.0	1485.0	0	0	1	-29.999999999999996	29.999999999999996								
	7556	4324	0.00511	0.019461	0.0	800.0	1570.0	1570.0	0	0	1	-29.999999999999996	29.999999999999996								
	132	2962	0.00064	0.00715	0.0	1481.0	4401.0	4401.0	0	0	1	-29.999999999999996	29.999999999999996								
	132	4393	0.00089	0.00712	0.0	1283.0	4403.0	4403.0	0	0	1	-29.999999999999996	29.999999999999996								
	5044	693	0.00048	0.00555	0.0	986.9999999999999	5671.0	5671.0	0	0	1	-29.999999999999996	29.999999999999996								
	5044	7860	0.00047	0.00566	0.0	1086.0	5562.0	5562.0	0	0	1	-29.999999999999996	29.999999999999996								
	6883	693	0.00046	0.00524	0.0	1053.0	6006.0	6006.0	0	0	1	-29.999999999999996	29.999999999999996								
	6883	7860	0.00052	0.00514	0.0	1053.0	6115.0	6115.0	0	0	1	-29.999999999999996	29.999999999999996								
	6494	4945	0.00029	0.00298	0.0	1613.0	10550.0	10550.0	0	0	1	-29.999999999999996	29.999999999999996								
	6494	6080	0.0003	0.00291	0.0	1514.0	10798.0	10798.0	0	0	1	-29.999999999999996	29.999999999999996								
	7146	7388	0.00042	0.02666	0.0	1185.0	1185.0	1185.0	0	0	1	-29.999999999999996	29.999999999999996								
	4735	5239	0.00058	0.00534	0.0	1876.0000000000002	5881.0	5881.0	0	0	1	-29.999999999999996	29.999999999999996								
	4735	3145	0.00054	0.00589	0.0	1843.0	5341.0	5341.0	0	0	1	-29.999999999999996	29.999999999999996								
	3615	8731	0.00036	0.00485	0.0	6495.0	6495.0	6495.0	0	0	1	-29.999999999999996	29.999999999999996								
	3615	6246	0.00042	0.00415	0.0	7573.0	7573.0	7573.0	0	0	1	-29.999999999999996	29.999999999999996								
	2549	7829	0.003349	0.02445	0.0	553.0	1280.0	1280.0	0	0	1	-29.999999999999996	29.999999999999996								
	2549	4951	0.003281	0.02493	0.0	553.0	1257.0	1257.0	0	0	1	-29.999999999999996	29.999999999999996								
	7004	3370	0.0	0.00046	0.0	757.0	68669.0	68669.0	0	0	1	-29.999999999999996	29.999999999999996								
	8381	4795	0.00053	0.00587	0.0	1777.0	5360.0	5360.0	0	0	1	-29.999999999999996	29.999999999999996								
	8381	5562	0.00055	0.00666	0.0	1711.0	4727.0	4727.0	0	0	1	-29.999999999999996	29.999999999999996								
	3409	1716	0.00051	0.00614	0.0	5127.0	5127.0	5127.0	0	0	1	-29.999999999999996	29.999999999999996								
	3409	6246	0.00043	0.00406	0.0	7737.0	7737.0	7737.0	0	0	1	-29.999999999999996	29.999999999999996								
	1000	6145	0.002211	0.014419	0.0	438.0	2166.0	2166.0	0	0	1	-29.999999999999996	29.999999999999996								
	1000	3186	0.002169	0.013349	0.0	457.0	2336.0	2336.0	0	0	1	-29.999999999999996	29.999999999999996								
	6060	5289	0.00033	0.00101	0.0	823.0	29729.000000000004	29729.000000000004	0	0	1	-29.999999999999996	29.999999999999996								
	7965	5289	0.00028	0.00104	0.0	757.0	29329.000000000004	29329.000000000004	0	0	1	-29.999999999999996	29.999999999999996								
	4363	4507	0.00057	0.0071	0.0	1613.0	4435.0	4435.0	0	0	1	-29.999999999999996	29.999999999999996								
	4363	6246	0.00057	0.00697	0.0	1613.0	4517.0	4517.0	0	0	1	-29.999999999999996	29.999999999999996								
	425	7526	0.0001	0.00119	0.0	1810.0000000000002	26451.0	26451.0	0	0	1	-29.999999999999996	29.999999999999996								
	425	5674	0.0001	0.0013	0.0	1613.0	24227.0	24227.0	0	0	1	-29.999999999999996	29.999999999999996								
	4799	8581	9.0e-5	0.00121	0.0	1514.0	26033.999999999996	26033.999999999996	0	0	1	-29.999999999999996	29.999999999999996								
	4799	4337	0.0001	0.00134	0.0	1251.0	23508.0	23508.0	0	0	1	-29.999999999999996	29.999999999999996								
	4968	2154	0.00039	0.00474	0.0	1843.0	6642.0	6642.0	0	0	1	-29.999999999999996	29.999999999999996								
	4968	1747	0.00045	0.00467	0.0	1448.0	6733.0	6733.0	0	0	1	-29.999999999999996	29.999999999999996								
	7699	2154	0.00052	0.00567	0.0	1645.0	5548.0	5548.0	0	0	1	-29.999999999999996	29.999999999999996								
	7699	1689	0.00054	0.00667	0.0	1316.0	4721.0	4721.0	0	0	1	-29.999999999999996	29.999999999999996								
	3097	659	0.00073	0.00905	0.0	1185.0	3479.9999999999995	3479.9999999999995	0	0	1	-29.999999999999996	29.999999999999996								
	9024	4929	0.00192	0.02296	0.0	889.0	1371.0	1371.0	0	0	1	-29.999999999999996	29.999999999999996								
	1815	6542	0.01431	0.05899	0.0	521.0	521.0	521.0	0	0	1	-29.999999999999996	29.999999999999996								
	6542	1445	0.02607	0.07168	0.0	415.00000000000006	415.00000000000006	415.00000000000006	0	0	1	-29.999999999999996	29.999999999999996								
	6069	6833	0.00054	0.00465	0.0	1580.0	6748.0	6748.0	0	0	1	-29.999999999999996	29.999999999999996								
	6069	2268	0.00126	0.01124	0.0	1613.0	2793.0	2793.0	0	0	1	-29.999999999999996	29.999999999999996								
	6069	7180	0.00048	0.00527	0.0	1547.0	5970.0	5970.0	0	0	1	-29.999999999999996	29.999999999999996								
	6069	6293	0.00082	0.00938	0.0	1580.0	3354.9999999999995	3354.9999999999995	0	0	1	-29.999999999999996	29.999999999999996								
	1968	9192	0.00028	0.003502	0.0	8992.0	8992.0	8992.0	0	0	1	-29.999999999999996	29.999999999999996								
	1968	3493	0.691467	4.414711	0.0	8.0	8.0	8.0	0	0	1	-29.999999999999996	29.999999999999996								
	1968	955	0.02004	0.0916	0.0	337.0	337.0	337.0	0	0	1	-29.999999999999996	29.999999999999996								
	1968	228	0.841911	4.768444	0.0	7.000000000000001	7.000000000000001	7.000000000000001	0	0	1	-29.999999999999996	29.999999999999996								
	1968	6826	0.026	0.08948	0.0	339.0	339.0	339.0	0	0	1	-29.999999999999996	29.999999999999996								
	1968	8964	0.002631	0.011889	0.0	299.0	2595.0	2595.0	0	0	1	-29.999999999999996	29.999999999999996								
	1968	5776	0.7232	1.944	0.0	16.0	16.0	16.0	0	0	1	-29.999999999999996	29.999999999999996								
	9192	955	0.156169	0.546756	0.0	56.00000000000001	56.00000000000001	56.00000000000001	0	0	1	-29.999999999999996	29.999999999999996								
	9192	6826	0.168809	0.580622	0.0	53.0	53.0	53.0	0	0	1	-29.999999999999996	29.999999999999996								
	9192	8964	0.019222	0.068209	0.0	446.0	446.0	446.0	0	0	1	-29.999999999999996	29.999999999999996								
	8574	1616	0.00039	0.00386	0.0	1415.0	8142.0	8142.0	0	0	1	-29.999999999999996	29.999999999999996								
	8574	1163	0.00096	0.01138	0.0	1448.0	2766.0	2766.0	0	0	1	-29.999999999999996	29.999999999999996								
	8574	9064	0.00037	0.00325	0.0	1415.0	9657.0	9657.0	0	0	1	-29.999999999999996	29.999999999999996								
	8574	8921	0.00029	0.00339	0.0	1580.0	9284.0	9284.0	0	0	1	-29.999999999999996	29.999999999999996								
	3493	2299	0.009458	0.158871	0.0	199.0	199.0	199.0	0	0	1	-29.999999999999996	29.999999999999996								
	2299	4423	0.0	0.000222	0.0	142286.0	142286.0	142286.0	0	0	1	-29.999999999999996	29.999999999999996								
	6826	2299	0.312951	7.130667	0.0	5.0	5.0	5.0	0	0	1	-29.999999999999996	29.999999999999996								
	7563	2299	0.247649	1.075911	0.0	28.999999999999996	28.999999999999996	28.999999999999996	0	0	1	-29.999999999999996	29.999999999999996								
	4427	2299	0.06056	0.18612	0.0	162.0	162.0	162.0	0	0	1	-29.999999999999996	29.999999999999996								
	8335	2299	2.142489	4.347733	0.0	7.000000000000001	7.000000000000001	7.000000000000001	0	0	1	-29.999999999999996	29.999999999999996								
	5155	2299	0.07132	1.068889	0.0	30.0	30.0	30.0	0	0	1	-29.999999999999996	29.999999999999996								
	271	2299	0.02268	0.08652	0.0	354.0	354.0	354.0	0	0	1	-29.999999999999996	29.999999999999996								
	2449	2299	2.007778	4.494222	0.0	7.000000000000001	7.000000000000001	7.000000000000001	0	0	1	-29.999999999999996	29.999999999999996								
	4665	2299	0.006178	0.028938	0.0	1068.0	1068.0	1068.0	0	0	1	-29.999999999999996	29.999999999999996								
	4495	2299	0.027711	0.260951	0.0	121.0	121.0	121.0	0	0	1	-29.999999999999996	29.999999999999996								
	3493	5587	0.0	0.000222	0.0	299.0	142286.0	142286.0	0	0	1	-29.999999999999996	29.999999999999996								
	4586	3493	0.00692	0.337378	0.0	94.0	94.0	94.0	0	0	1	-29.999999999999996	29.999999999999996								
	228	3493	0.025991	0.10048	0.0	305.0	305.0	305.0	0	0	1	-29.999999999999996	29.999999999999996								
	6826	3493	0.083711	0.8648	0.0	37.0	37.0	37.0	0	0	1	-29.999999999999996	29.999999999999996								
	7563	3493	0.447378	1.862089	0.0	17.0	17.0	17.0	0	0	1	-29.999999999999996	29.999999999999996								
	4427	3493	0.062169	0.153191	0.0	192.0	192.0	192.0	0	0	1	-29.999999999999996	29.999999999999996								
	8335	3493	2.492533	4.725778	0.0	6.0	6.0	6.0	0	0	1	-29.999999999999996	29.999999999999996								
	5155	3493	0.020271	0.08244	0.0	373.0	373.0	373.0	0	0	1	-29.999999999999996	29.999999999999996								
	271	3493	0.11416	1.777556	0.0	18.0	18.0	18.0	0	0	1	-29.999999999999996	29.999999999999996								
	5776	3493	0.574978	2.992578	0.0	11.0	11.0	11.0	0	0	1	-29.999999999999996	29.999999999999996								
	2449	3493	1.887067	4.964444	0.0	6.0	6.0	6.0	0	0	1	-29.999999999999996	29.999999999999996								
	4665	3493	0.250778	0.817422	0.0	37.0	37.0	37.0	0	0	1	-29.999999999999996	29.999999999999996								
	4495	3493	0.007049	0.029609	0.0	1038.0	1038.0	1038.0	0	0	1	-29.999999999999996	29.999999999999996								
	5587	4586	0.003049	0.020218	0.0	1545.0	1545.0	1545.0	0	0	1	-29.999999999999996	29.999999999999996								
	4423	4586	0.002911	0.020262	0.0	1544.0	1544.0	1544.0	0	0	1	-29.999999999999996	29.999999999999996								
	4929	2870	4.0e-5	0.00041	0.0	757.0	76679.0	76679.0	0	0	1	-29.999999999999996	29.999999999999996								
	4929	659	0.00087	0.01087	0.0	1283.0	2897.0	2897.0	0	0	1	-29.999999999999996	29.999999999999996								
	4929	1037	4.0e-5	0.00046	0.0	757.0	68410.0	68410.0	0	0	1	-29.999999999999996	29.999999999999996								
	4929	659	0.00095	0.00924	0.0	1481.0	3401.0	3401.0	0	0	1	-29.999999999999996	29.999999999999996								
	1815	5210	0.528017	2.636157	0.0	12.0	12.0	12.0	0	0	1	-29.999999999999996	29.999999999999996								
	1815	1445	0.032031	0.128659	0.0	239.0	239.0	239.0	0	0	1	-29.999999999999996	29.999999999999996								
	1616	7762	0.00044	0.0032	0.0	1645.0	9780.0	9780.0	0	0	1	-29.999999999999996	29.999999999999996								
	1616	2520	0.00046	0.00489	0.0	1711.0	6431.999999999999	6431.999999999999	0	0	1	-29.999999999999996	29.999999999999996								
	9064	7762	0.0003	0.00352	0.0	1580.0	8942.0	8942.0	0	0	1	-29.999999999999996	29.999999999999996								
	9064	89	0.00051	0.00454	0.0	1645.0	6915.000000000001	6915.000000000001	0	0	1	-29.999999999999996	29.999999999999996								
	1317	659	0.00068	0.00746	0.0	1613.0	4217.0	4217.0	0	0	1	-29.999999999999996	29.999999999999996								
	1317	8605	0.00093	0.01022	0.0	1744.0000000000002	3079.0	3079.0	0	0	1	-29.999999999999996	29.999999999999996								
	8605	1367	4.0e-5	0.0004	0.0	1481.0	78577.0	78577.0	0	0	1	-29.999999999999996	29.999999999999996								
	8605	8921	0.00078	0.00698	0.0	1744.0000000000002	4498.0	4498.0	0	0	1	-29.999999999999996	29.999999999999996								
	1163	1676	4.0e-5	0.00043	0.0	1580.0	73144.0	73144.0	0	0	1	-29.999999999999996	29.999999999999996								
	1163	7051	0.00025	0.00309	0.0	1678.0	10190.0	10190.0	0	0	1	-29.999999999999996	29.999999999999996								
	913	7762	0.00047	0.00538	0.0	1613.0	5849.0	5849.0	0	0	1	-29.999999999999996	29.999999999999996								
	2107	7762	0.00046	0.00548	0.0	1744.0000000000002	5744.0	5744.0	0	0	1	-29.999999999999996	29.999999999999996								
	2107	5996	0.00016	0.00173	0.0	1843.0	18181.0	18181.0	0	0	1	-29.999999999999996	29.999999999999996								
	2107	6293	0.00166	0.01471	0.0	1744.0000000000002	2134.0	2134.0	0	0	1	-29.999999999999996	29.999999999999996								
	913	7762	0.00051	0.00512	0.0	1777.0	6140.0	6140.0	0	0	1	-29.999999999999996	29.999999999999996								
	6704	8921	0.00021	0.00248	0.0	1514.0	12692.0	12692.0	0	0	1	-29.999999999999996	29.999999999999996								
	228	4586	0.004391	0.021689	0.0	286.0	1428.0	1428.0	0	0	1	-29.999999999999996	29.999999999999996								
	2441	6293	0.00024	0.00289	0.0	1645.0	10893.0	10893.0	0	0	1	-29.999999999999996	29.999999999999996								
	955	3506	0.0	0.000222	0.0	338.0	142286.0	142286.0	0	0	1	-29.999999999999996	29.999999999999996								
	955	8964	0.01788	0.100471	0.0	310.0	310.0	310.0	0	0	1	-29.999999999999996	29.999999999999996								
	3506	2908	0.006458	0.039982	0.0	780.0	780.0	780.0	0	0	1	-29.999999999999996	29.999999999999996								
	228	6826	0.106151	0.993333	0.0	32.0	32.0	32.0	0	0	1	-29.999999999999996	29.999999999999996								
	228	5776	0.699778	3.232311	0.0	10.0	10.0	10.0	0	0	1	-29.999999999999996	29.999999999999996								
	8964	6826	0.257058	0.43592	0.0	63.0	63.0	63.0	0	0	1	-29.999999999999996	29.999999999999996								
	5776	6826	0.002769	0.011449	0.0	2682.0	2682.0	2682.0	0	0	1	-29.999999999999996	29.999999999999996								
	659	8329	0.00034	0.00305	0.0	1580.0	10293.0	10293.0	0	0	1	-29.999999999999996	29.999999999999996								
	659	7051	0.00123	0.01255	0.0	1843.0	2505.0	2505.0	0	0	1	-29.999999999999996	29.999999999999996								
	659	9239	6.0e-5	0.00065	0.0	1415.0	48391.0	48391.0	0	0	1	-29.999999999999996	29.999999999999996								
	659	7960	6.0e-5	0.00063	0.0	1514.0	49913.0	49913.0	0	0	1	-29.999999999999996	29.999999999999996								
	659	6233	6.0e-5	0.00055	0.0	1744.0000000000002	57092.99999999999	57092.99999999999	0	0	1	-29.999999999999996	29.999999999999996								
	659	5416	0.00079	0.00968	0.0	1349.0	3253.0	3253.0	0	0	1	-29.999999999999996	29.999999999999996								
	659	6798	7.0e-5	0.00079	0.0	39828.0	39828.0	39828.0	0	0	1	-29.999999999999996	29.999999999999996								
	792	3279	0.0	0.000222	0.0	377.0	142286.0	142286.0	0	0	1	-29.999999999999996	29.999999999999996								
	7563	792	2.064178	7.545333	0.0	5.0	5.0	5.0	0	0	1	-29.999999999999996	29.999999999999996								
	7279	792	0.153711	0.482489	0.0	63.0	63.0	63.0	0	0	1	-29.999999999999996	29.999999999999996								
	8335	792	0.015809	0.12368	0.0	254.0	254.0	254.0	0	0	1	-29.999999999999996	29.999999999999996								
	2449	792	0.057978	0.363422	0.0	86.0	86.0	86.0	0	0	1	-29.999999999999996	29.999999999999996								
	4665	792	0.6932	2.196889	0.0	14.000000000000002	14.000000000000002	14.000000000000002	0	0	1	-29.999999999999996	29.999999999999996								
	4495	792	0.560356	2.395867	0.0	13.0	13.0	13.0	0	0	1	-29.999999999999996	29.999999999999996								
	5416	2267	0.00024	0.00213	0.0	757.0	14737.0	14737.0	0	0	1	-29.999999999999996	29.999999999999996								
	5416	7637	0.00093	0.00884	0.0	1283.0	3554.0	3554.0	0	0	1	-29.999999999999996	29.999999999999996								
	8964	2168	0.0	0.000222	0.0	312.0	142286.0	142286.0	0	0	1	-29.999999999999996	29.999999999999996								
	3659	5996	0.00018	0.00204	0.0	1777.0	15425.0	15425.0	0	0	1	-29.999999999999996	29.999999999999996								
	5762	5996	0.00018	0.00208	0.0	757.0	15130.000000000002	15130.000000000002	0	0	1	-29.999999999999996	29.999999999999996								
	3242	5097	0.0	0.000222	0.0	142286.0	142286.0	142286.0	0	0	1	-29.999999999999996	29.999999999999996								
	7563	3242	0.02068	0.093391	0.0	331.0	331.0	331.0	0	0	1	-29.999999999999996	29.999999999999996								
	4427	3242	0.777778	7.408	0.0	5.0	5.0	5.0	0	0	1	-29.999999999999996	29.999999999999996								
	3242	7279	0.00884	0.07292	0.0	430.99999999999994	430.99999999999994	430.99999999999994	0	0	1	-29.999999999999996	29.999999999999996								
	271	3242	0.131671	8.295556	0.0	4.0	4.0	4.0	0	0	1	-29.999999999999996	29.999999999999996								
	3242	1611	0.082462	0.568222	0.0	56.00000000000001	56.00000000000001	56.00000000000001	0	0	1	-29.999999999999996	29.999999999999996								
	5097	1611	0.0042	0.02624	0.0	1189.0	1189.0	1189.0	0	0	1	-29.999999999999996	29.999999999999996								
	8181	8179	0.00031	0.00317	0.0	1251.0	9918.0	9918.0	0	0	1	-29.999999999999996	29.999999999999996								
	8181	7762	0.00043	0.00498	0.0	1481.0	6320.0	6320.0	0	0	1	-29.999999999999996	29.999999999999996								
	9025	7762	0.00042	0.00508	0.0	1711.0	6197.0	6197.0	0	0	1	-29.999999999999996	29.999999999999996								
	7563	4427	0.110671	0.773067	0.0	41.0	41.0	41.0	0	0	1	-29.999999999999996	29.999999999999996								
	7563	7279	0.00912	0.037609	0.0	817.0	817.0	817.0	0	0	1	-29.999999999999996	29.999999999999996								
	7563	8335	0.098049	0.598711	0.0	53.0	53.0	53.0	0	0	1	-29.999999999999996	29.999999999999996								
	7563	5155	0.019031	1.160356	0.0	28.000000000000004	28.000000000000004	28.000000000000004	0	0	1	-29.999999999999996	29.999999999999996								
	7563	271	0.024071	0.915733	0.0	35.0	35.0	35.0	0	0	1	-29.999999999999996	29.999999999999996								
	2449	7563	1.484267	4.479111	0.0	7.000000000000001	7.000000000000001	7.000000000000001	0	0	1	-29.999999999999996	29.999999999999996								
	4665	7563	0.011578	0.063271	0.0	492.0	492.0	492.0	0	0	1	-29.999999999999996	29.999999999999996								
	4495	7563	0.654889	1.839111	0.0	17.0	17.0	17.0	0	0	1	-29.999999999999996	29.999999999999996								
	7563	1611	0.022049	0.10076	0.0	307.0	307.0	307.0	0	0	1	-29.999999999999996	29.999999999999996								
	4427	7279	0.459867	2.604711	0.0	12.0	12.0	12.0	0	0	1	-29.999999999999996	29.999999999999996								
	4427	8335	2.320222	6.088	0.0	5.0	5.0	5.0	0	0	1	-29.999999999999996	29.999999999999996								
	4427	5155	0.006369	0.048089	0.0	652.0	652.0	652.0	0	0	1	-29.999999999999996	29.999999999999996								
	4427	271	0.006631	0.0432	0.0	723.0	723.0	723.0	0	0	1	-29.999999999999996	29.999999999999996								
	2449	4427	2.567244	6.767111	0.0	5.0	5.0	5.0	0	0	1	-29.999999999999996	29.999999999999996								
	4665	4427	0.309889	1.214178	0.0	26.0	26.0	26.0	0	0	1	-29.999999999999996	29.999999999999996								
	4495	4427	0.009191	0.043289	0.0	714.0	714.0	714.0	0	0	1	-29.999999999999996	29.999999999999996								
	4427	1611	0.691022	5.239556	0.0	6.0	6.0	6.0	0	0	1	-29.999999999999996	29.999999999999996								
	5210	1445	0.002669	0.01718	0.0	1817.0000000000002	1817.0000000000002	1817.0000000000002	0	0	1	-29.999999999999996	29.999999999999996								
	8179	5509	0.00074	0.00694	0.0	1251.0	4526.0	4526.0	0	0	1	-29.999999999999996	29.999999999999996								
	8179	7762	0.00068	0.008	0.0	1547.0	3935.0	3935.0	0	0	1	-29.999999999999996	29.999999999999996								
	7279	4014	0.0	0.000222	0.0	142286.0	142286.0	142286.0	0	0	1	-29.999999999999996	29.999999999999996								
	8335	7279	0.00524	0.030631	0.0	1017.0	1017.0	1017.0	0	0	1	-29.999999999999996	29.999999999999996								
	5155	7279	0.33932	3.814667	0.0	9.0	9.0	9.0	0	0	1	-29.999999999999996	29.999999999999996								
	271	7279	0.22696	2.614933	0.0	13.0	13.0	13.0	0	0	1	-29.999999999999996	29.999999999999996								
	2449	7279	0.190671	0.719378	0.0	43.0	43.0	43.0	0	0	1	-29.999999999999996	29.999999999999996								
	4665	7279	1.050222	2.105556	0.0	14.000000000000002	14.000000000000002	14.000000000000002	0	0	1	-29.999999999999996	29.999999999999996								
	4495	7279	1.431644	4.294578	0.0	7.000000000000001	7.000000000000001	7.000000000000001	0	0	1	-29.999999999999996	29.999999999999996								
	1611	7279	0.022618	0.161089	0.0	195.0	195.0	195.0	0	0	1	-29.999999999999996	29.999999999999996								
	5509	1579	0.00088	0.00895	0.0	1810.0000000000002	3513.0000000000005	3513.0000000000005	0	0	1	-29.999999999999996	29.999999999999996								
	8335	1531	0.0	0.000222	0.0	299.0	142286.0	142286.0	0	0	1	-29.999999999999996	29.999999999999996								
	5155	8335	1.827778	7.768	0.0	4.0	4.0	4.0	0	0	1	-29.999999999999996	29.999999999999996								
	2449	8335	0.020849	0.153382	0.0	204.99999999999997	204.99999999999997	204.99999999999997	0	0	1	-29.999999999999996	29.999999999999996								
	4665	8335	0.156231	0.656267	0.0	47.0	47.0	47.0	0	0	1	-29.999999999999996	29.999999999999996								
	4495	8335	0.176498	0.891556	0.0	35.0	35.0	35.0	0	0	1	-29.999999999999996	29.999999999999996								
	7762	2268	0.00067	0.00777	0.0	1613.0	4051.0	4051.0	0	0	1	-29.999999999999996	29.999999999999996								
	5155	271	0.004578	0.061889	0.0	509.0	509.0	509.0	0	0	1	-29.999999999999996	29.999999999999996								
	5155	2908	0.01348	0.05932	0.0	520.0	520.0	520.0	0	0	1	-29.999999999999996	29.999999999999996								
	4665	5155	0.066391	2.802622	0.0	12.0	12.0	12.0	0	0	1	-29.999999999999996	29.999999999999996								
...
];

%%-----  OPF Data  -----%%
%% cost data
%    1    startup    shutdown    n    x1    y1    ...    xn    yn
%    2    startup    shutdown    n    c(n-1)    ...    c0
mpc.gencost = [
	2	0.0	0.0	2	31.54185	0.0
	2	0.0	0.0	2	34.788873	0.0
	2	0.0	0.0	2	45.259135	0.0
	2	0.0	0.0	2	29.222557	0.0
	2	0.0	0.0	2	6.831746	0.0
	2	0.0	0.0	2	25.158881	0.0
	2	0.0	0.0	2	105.68360500000001	0.0
	2	0.0	0.0	2	20.731624000000004	0.0
	2	0.0	0.0	2	22.098373	0.0
	2	0.0	0.0	2	27.353439000000005	0.0
	2	0.0	0.0	2	13.318110000000003	0.0
	2	0.0	0.0	2	7.918182	0.0
	2	0.0	0.0	2	37.155789	0.0
	2	0.0	0.0	2	28.145150000000005	0.0
	2	0.0	0.0	2	36.581832	0.0
	2	0.0	0.0	2	27.078298	0.0
	2	0.0	0.0	2	15.164131	0.0
	2	0.0	0.0	2	15.398785	0.0
	2	0.0	0.0	2	16.315499	0.0
	2	0.0	0.0	2	33.19514	0.0
	2	0.0	0.0	2	38.52407	0.0
	2	0.0	0.0	2	21.923968999999996	0.0
	2	0.0	0.0	2	27.942796000000005	0.0
	2	0.0	0.0	2	31.475733	0.0
	2	0.0	0.0	2	17.179463	0.0
	2	0.0	0.0	2	36.911222	0.0
	2	0.0	0.0	2	42.661481	0.0
	2	0.0	0.0	2	31.68182	0.0
	2	0.0	0.0	2	56.690369000000004	0.0
	2	0.0	0.0	2	18.564121	0.0
	2	0.0	0.0	2	56.86211900000001	0.0
	2	0.0	0.0	2	27.565617	0.0
	2	0.0	0.0	2	44.265658	0.0
	2	0.0	0.0	2	23.325968	0.0
	2	0.0	0.0	2	14.016818	0.0
	2	0.0	0.0	2	36.596808	0.0
	2	0.0	0.0	2	30.251545	0.0
	2	0.0	0.0	2	62.73866	0.0
	2	0.0	0.0	2	39.860505	0.0
	2	0.0	0.0	2	33.156019	0.0
	2	0.0	0.0	2	35.367631	0.0
	2	0.0	0.0	2	31.285403	0.0
	2	0.0	0.0	2	23.055608	0.0
	2	0.0	0.0	2	115.760204	0.0
	2	0.0	0.0	2	25.133068000000005	0.0
	2	0.0	0.0	2	5.784258	0.0
	2	0.0	0.0	2	7.557856000000001	0.0
	2	0.0	0.0	2	22.295268	0.0
	2	0.0	0.0	2	22.168853	0.0
	2	0.0	0.0	2	22.568495	0.0
	2	0.0	0.0	2	18.176607	0.0
	2	0.0	0.0	2	20.909096	0.0
	2	0.0	0.0	2	22.099784	0.0
	2	0.0	0.0	2	20.65252	0.0
	2	0.0	0.0	2	30.885807	0.0
	2	0.0	0.0	2	19.278757	0.0
	2	0.0	0.0	2	46.754235	0.0
	2	0.0	0.0	2	31.567138	0.0
	2	0.0	0.0	2	31.29814	0.0
	2	0.0	0.0	2	30.637713000000005	0.0
	2	0.0	0.0	2	38.292757	0.0
	2	0.0	0.0	2	17.809839	0.0
	2	0.0	0.0	2	35.05488	0.0
	2	0.0	0.0	2	17.867485	0.0
	2	0.0	0.0	2	15.860848	0.0
	2	0.0	0.0	2	15.771301	0.0
	2	0.0	0.0	2	25.572045	0.0
	2	0.0	0.0	2	108.34939800000001	0.0
	2	0.0	0.0	2	7.313398000000001	0.0
	2	0.0	0.0	2	10.055947	0.0
	2	0.0	0.0	2	27.069051	0.0
	2	0.0	0.0	2	129.259362	0.0
	2	0.0	0.0	2	13.896074	0.0
	2	0.0	0.0	2	46.444798	0.0
	2	0.0	0.0	2	35.368173	0.0
	2	0.0	0.0	2	8.858522	0.0
	2	0.0	0.0	2	11.312819	0.0
	2	0.0	0.0	2	28.704584	0.0
	2	0.0	0.0	2	27.939041	0.0
	2	0.0	0.0	2	32.301527	0.0
	2	0.0	0.0	2	29.727593	0.0
	2	0.0	0.0	2	97.851404	0.0
	2	0.0	0.0	2	30.853594000000005	0.0
	2	0.0	0.0	2	34.267518	0.0
	2	0.0	0.0	2	32.330172	0.0
	2	0.0	0.0	2	27.38986	0.0
	2	0.0	0.0	2	42.363807	0.0
	2	0.0	0.0	2	35.469484	0.0
	2	0.0	0.0	2	19.834657	0.0
	2	0.0	0.0	2	6.733122	0.0
	2	0.0	0.0	2	37.980462	0.0
	2	0.0	0.0	2	35.05228	0.0
	2	0.0	0.0	2	27.236093	0.0
	2	0.0	0.0	2	21.731964	0.0
	2	0.0	0.0	2	37.519412	0.0
	2	0.0	0.0	2	17.770291	0.0
	2	0.0	0.0	2	19.803437	0.0
	2	0.0	0.0	2	21.72165	0.0
	2	0.0	0.0	2	117.609781	0.0
	2	0.0	0.0	2	33.073148	0.0
	2	0.0	0.0	2	20.769285	0.0
	2	0.0	0.0	2	19.282484	0.0
	2	0.0	0.0	2	57.546543	0.0
	2	0.0	0.0	2	20.412877	0.0
	2	0.0	0.0	2	29.272721	0.0
	2	0.0	0.0	2	22.809671000000005	0.0
	2	0.0	0.0	2	44.45444	0.0
	2	0.0	0.0	2	36.547352	0.0
	2	0.0	0.0	2	36.651844	0.0
	2	0.0	0.0	2	24.064945	0.0
	2	0.0	0.0	2	29.889236	0.0
	2	0.0	0.0	2	27.995576	0.0
	2	0.0	0.0	2	19.95847	0.0
	2	0.0	0.0	2	12.208096000000001	0.0
	2	0.0	0.0	2	34.557393	0.0
	2	0.0	0.0	2	51.723795	0.0
	2	0.0	0.0	2	43.38464	0.0
	2	0.0	0.0	2	31.188814000000004	0.0
	2	0.0	0.0	2	23.590276	0.0
	2	0.0	0.0	2	40.374446	0.0
	2	0.0	0.0	2	54.112308000000006	0.0
	2	0.0	0.0	2	11.809591000000001	0.0
	2	0.0	0.0	2	28.889109000000005	0.0
	2	0.0	0.0	2	22.786739000000004	0.0
	2	0.0	0.0	2	35.514751	0.0
	2	0.0	0.0	2	34.227207	0.0
	2	0.0	0.0	2	25.676397	0.0
	2	0.0	0.0	2	19.513954	0.0
	2	0.0	0.0	2	18.282341	0.0
	2	0.0	0.0	2	40.243993	0.0
	2	0.0	0.0	2	33.757817	0.0
	2	0.0	0.0	2	20.302912	0.0
	2	0.0	0.0	2	24.969144	0.0
	2	0.0	0.0	2	14.333446000000002	0.0
	2	0.0	0.0	2	21.622306	0.0
	2	0.0	0.0	2	25.097854	0.0
	2	0.0	0.0	2	28.287736	0.0
	2	0.0	0.0	2	31.094528	0.0
	2	0.0	0.0	2	17.174469	0.0
	2	0.0	0.0	2	16.769063	0.0
	2	0.0	0.0	2	7.339046	0.0
	2	0.0	0.0	2	27.607326000000004	0.0
	2	0.0	0.0	2	31.721585	0.0
	2	0.0	0.0	2	29.668915	0.0
	2	0.0	0.0	2	46.758357	0.0
	2	0.0	0.0	2	41.825286	0.0
	2	0.0	0.0	2	47.646661	0.0
	2	0.0	0.0	2	32.067232	0.0
	2	0.0	0.0	2	19.970659	0.0
	2	0.0	0.0	2	16.921934	0.0
	2	0.0	0.0	2	51.600653	0.0
	2	0.0	0.0	2	36.376379	0.0
	2	0.0	0.0	2	19.029629	0.0
	2	0.0	0.0	2	34.308365	0.0
	2	0.0	0.0	2	25.592384	0.0
	2	0.0	0.0	2	42.166446	0.0
	2	0.0	0.0	2	15.631872	0.0
	2	0.0	0.0	2	117.318042	0.0
	2	0.0	0.0	2	28.823604	0.0
	2	0.0	0.0	2	115.59578400000001	0.0
	2	0.0	0.0	2	37.828949	0.0
	2	0.0	0.0	2	32.966792	0.0
	2	0.0	0.0	2	33.786891	0.0
	2	0.0	0.0	2	44.897676000000004	0.0
	2	0.0	0.0	2	29.317995	0.0
	2	0.0	0.0	2	26.388353	0.0
	2	0.0	0.0	2	52.747682	0.0
	2	0.0	0.0	2	29.910533	0.0
	2	0.0	0.0	2	27.291461000000005	0.0
	2	0.0	0.0	2	43.666185	0.0
	2	0.0	0.0	2	109.786992	0.0
	2	0.0	0.0	2	27.144391000000002	0.0
	2	0.0	0.0	2	46.513908	0.0
	2	0.0	0.0	2	23.99591	0.0
	2	0.0	0.0	2	39.130245	0.0
	2	0.0	0.0	2	19.092327	0.0
	2	0.0	0.0	2	39.920229	0.0
	2	0.0	0.0	2	35.214411	0.0
	2	0.0	0.0	2	27.360129	0.0
	2	0.0	0.0	2	43.60584	0.0
	2	0.0	0.0	2	42.601319	0.0
	2	0.0	0.0	2	30.162113	0.0
	2	0.0	0.0	2	26.943738	0.0
	2	0.0	0.0	2	41.88595	0.0
	2	0.0	0.0	2	30.568533	0.0
	2	0.0	0.0	2	28.464531	0.0
	2	0.0	0.0	2	12.699122000000001	0.0
	2	0.0	0.0	2	41.589241	0.0
	2	0.0	0.0	2	61.010324000000004	0.0
	2	0.0	0.0	2	28.863182	0.0
	2	0.0	0.0	2	20.344902	0.0
	2	0.0	0.0	2	50.380987	0.0
	2	0.0	0.0	2	32.694497	0.0
	2	0.0	0.0	2	40.352738	0.0
	2	0.0	0.0	2	17.157455	0.0
	2	0.0	0.0	2	24.945828	0.0
	2	0.0	0.0	2	18.06555	0.0
	2	0.0	0.0	2	13.460222	0.0
	2	0.0	0.0	2	30.347023	0.0
	2	0.0	0.0	2	50.260292	0.0
...
];

